$
$ Warning: remember to include NASTRAN BARMASS=1 
$          at the begin of NASTRAN file.
$
$-------2-------3-------4-------5-------6-------7-------8-------9-------10
$ DATA ADDED AFTER GUESS SIZING
$-------2-------3-------4-------5-------6-------7-------8-------9-------10
$ ADD PAYLOAD

$ Mass Configuration 1
$ Baggage: 100
$ Passengers: 100
$ Wing Fuel: 40
$ Central Fuel: 100
$-------2-------3-------4-------5-------6-------7-------8-------9-------10
$ Lumped masses: BAGGAGE 4099.64 Kg
$ Fuselage beams: from 6 to 8
$-------2-------3-------4-------5-------6-------7-------8-------9-------10
CONM2   132     1005    0       828.11  0.      0.      0.      
        5168.14 0.      3876.09 -33.49570.      3876.96 
CONM2   133     1006    0       1514.95 0.      0.      0.      
        8686.26 0.      6087.65 32.8896 0.      6091.89 
CONM2   134     1007    0       1221.71 0.      0.      0.      
        5253.62 0.      3255.97 101.498 0.      3261.13 
CONM2   135     1008    0       534.87  0.      0.      0.      
        1735.5  0.      1044.42 35.1131 0.      1046.2  

$-------2-------3-------4-------5-------6-------7-------8-------9-------10
$ Lumped masses: PASSENGERS 41004.988 Kg
$ Fuselage beams: from 2 to 7
$-------2-------3-------4-------5-------6-------7-------8-------9-------10
CONM2   136     1001    0       4343.93 0.      0.      0.      
        29390.4 0.      30717.1 -16.28210.      30716.9 
CONM2   137     1002    0       7534.69 0.      0.      0.      
        49822.1 0.      42890.5 85.0673 0.      42891.6 
CONM2   138     1003    0       6461.81 0.      0.      0.      
        40844.5 0.      25289.2 -87.82150.      25295.4 
CONM2   139     1004    0       6502.38 0.      0.      0.      
        40577.5 0.      25759.4 -384.1490.      25769.4 
CONM2   140     1005    0       6765.49 0.      0.      0.      
        42221.  0.      29185.8 -337.93 0.      29194.6 
CONM2   141     1006    0       6465.43 0.      0.      0.      
        37070.8 0.      25980.6 140.365 0.      25998.7 
CONM2   142     1007    0       2931.27 0.      0.      0.      
        15014.5 0.      9438.37 283.316 0.      9452.76 

$-------2-------3-------4-------5-------6-------7-------8-------9-------10
$ Lumped masses: WING TANK FUEL 46000 Kg
$ Wing beams: from 3 to 13
$ Span fraction: from 11 to 70 
$-------2-------3-------4-------5-------6-------7-------8-------9-------10
CONM2   143     2002    0       2079.05 0.      0.      0.      
        2364.78 2723.28 4932.81 341.672 538.843 705.601 
CONM2   144     2003    0       3882.24 0.      0.      0.      
        4212.34 4764.36 8705.09 597.754 942.703 1309.61 
CONM2   145     2004    0       3350.15 0.      0.      0.      
        3268.8  3533.83 6601.17 443.367 699.223 1115.78 
CONM2   146     2005    0       2857.32 0.      0.      0.      
        2495.95 2553.48 4903.85 320.369 505.246 940.213 
CONM2   147     2006    0       2403.76 0.      0.      0.      
        1871.81 1788.67 3558.51 224.413 353.917 782.044 
CONM2   148     2007    0       1989.47 0.      0.      0.      
        1375.12 1205.85 2512.23 151.291 238.597 640.442 
CONM2   149     2008    0       1671.65 0.      0.      0.      
        1100.65 796.096 1713.33 99.4812 145.406 568.465 
CONM2   150     2009    0       1447.43 0.      0.      0.      
        914.951 516.082 1177.74 64.1009 82.466  524.043 
CONM2   151     2010    0       1259.5  0.      0.      0.      
        710.217 338.516 882.59  42.0459 54.0922 453.807 
CONM2   152     2011    0       1096.71 0.      0.      0.      
        573.073 236.419 693.458 29.3648 37.7779 393.997 
CONM2   153     2012    0       735.901 0.      0.      0.      
        360.471 127.68  425.486 15.8587 20.4022 263.76  
CONM2   154     2013    0       226.832 0.      0.      0.      
        105.296 31.875  121.527 3.95909 5.09339 81.152  
CONM2   155     2020    0       2079.05 0.      -0.     0.      
        2364.78 -2723.284932.81 341.672 -538.843705.601 
CONM2   156     2021    0       3882.24 0.      -0.     0.      
        4212.34 -4764.368705.09 597.754 -942.7031309.61 
CONM2   157     2022    0       3350.15 0.      -0.     0.      
        3268.8  -3533.836601.17 443.367 -699.2231115.78 
CONM2   158     2023    0       2857.32 0.      -0.     0.      
        2495.95 -2553.484903.85 320.369 -505.246940.213 
CONM2   159     2024    0       2403.76 0.      -0.     0.      
        1871.81 -1788.673558.51 224.413 -353.917782.044 
CONM2   160     2025    0       1989.47 0.      -0.     0.      
        1375.12 -1205.852512.23 151.291 -238.597640.442 
CONM2   161     2026    0       1671.65 0.      -0.     0.      
        1100.65 -796.0961713.33 99.4812 -145.406568.465 
CONM2   162     2027    0       1447.43 0.      -0.     0.      
        914.951 -516.0821177.74 64.1009 -82.466 524.043 
$ ... 8 like lines cut

$-------2-------3-------4-------5-------6-------7-------8-------9-------10
$ Lumped masses: CENTRAL TANK FUEL 46000 Kg
$ Wing beams: from 1 to 2
$-------2-------3-------4-------5-------6-------7-------8-------9-------10
CONM2   167     2000    0       5750.   0.      0.      0.      
        1513.9  0.      29846.6 0.      0.      1513.9  
CONM2   168     2001    0       11500.  0.      0.      0.      
        3027.81 0.      52966.6 0.      0.      3027.81 
CONM2   169     2002    0       5750.   0.      0.      0.      
        1513.9  0.      23120.  0.      0.      1513.9  
CONM2   170     2000    0       5750.   0.      -0.     0.      
        1513.9  -0.     29846.6 0.      -0.     1513.9  
CONM2   171     2019    0       11500.  0.      -0.     0.      
        3027.81 -0.     52966.6 0.      -0.     3027.81 
CONM2   172     2020    0       5750.   0.      -0.     0.      
        1513.9  -0.     23120.  0.      -0.     1513.9  

$ Summary of payload (as CONM2): 
$ Wing tank: 46000
$ Central tank: 46000
$ Auxiliary tank: 0
$ Passengers: 41004.988
$ Baggage: 4099.64
$-------2-------3-------4-------5-------6-------7-------8-------9-------10
$ ADD GUST PARAMS
$INCLUDE GustSolverParam.inc
$-------2-------3-------4-------5-------6-------7-------8-------9-------10
$ Summary for total structural masses (CT included except for tailbooms): 
$ Wing: 67226.7322 Kg
$ Htail: 3284.6749 Kg
$ Vtail: 3016.7222 Kg
$ Fuselage: 28441.12 Kg
$ Canard: 0 Kg
$ Tailbooms: 0 Kg

$ Summary for secondary masses along fuselage (as PBAR density):
$ Systems: 44985.7794 Kg
$ Interior:  22000 Kg
$ Pilots: 255 Kg
$ Crew: 750 Kg
$ Paint: 316.2974 Kg

$-------2-------3-------4-------5-------6-------7-------8-------9-------10
$ Material definition
$-------2-------3-------4-------5-------6-------7-------8-------9-------10
MAT1    1       7.39e+10        0.3     2795.72 
        4.03e+083.76e+082.27e+08
MAT1    200     7.39e+10        0.3     2795.72 
        4.74e+084.74e+082.78e+08
MAT1    300     7.39e+10        0.3     2795.72 
        4.74e+084.74e+082.78e+08
MAT1    400     7.39e+10        0.3     2795.72 
        4.74e+084.74e+082.78e+08

$-------2-------3-------4-------5-------6-------7-------8-------9-------10
$ Node definition
$-------2-------3-------4-------5-------6-------7-------8-------9-------10
GRID    1000    0       0.      0.      -0.08124        0       0       
GRID    1001    0       11.339  0.      0.910791        0       0       
GRID    1002    0       20.55   0.      1.02383         0       0       
GRID    1003    0       27.3158 0.      1.10687         0       0       
GRID    1004    0       34.25   0.      0.9271          0       0       
GRID    1005    0       41.1    0.      0.749517        0       0       
GRID    1006    0       48.592  0.      0.555291        0       0       
GRID    1007    0       54.8    0.      0.870712        0       0       
GRID    1008    0       59.6344 0.      1.11634         0       0       
GRID    1009    0       62.3302 0.      1.25331         0       0       
GRID    1010    0       68.5    0.      1.56679         0       0       
GRID    2001    0       27.3158 1.77748 -2.36052        0       0       
GRID    2002    0       27.3158 3.55497 -2.36052        0       0       
GRID    2003    0       28.3377 5.16658 -2.15832        0       0       
GRID    2004    0       29.3596 6.77818 -1.95612        0       0       
GRID    2005    0       30.3815 8.38979 -1.75393        0       0       
GRID    2006    0       31.4033 10.0014 -1.55173        0       0       
GRID    2007    0       32.4252 11.613  -1.34953        0       0       
GRID    2008    0       33.4471 13.2246 -1.14733        0       0       
GRID    2009    0       34.7077 14.8463 -0.9459         0       0       
$ ... 66 like lines cut

$-------2-------3-------4-------5-------6-------7-------8-------9-------10
$ Beam definition
$-------2-------3-------4-------5-------6-------7-------8-------9-------10
CBAR    1000    1000    1000    1001    -0.087150.0     0.996195
CBAR    1001    1001    1001    1002    -0.012270.0     0.999925
CBAR    1002    1002    1002    1003    -0.012270.0     0.999925
CBAR    1003    1003    1003    1004    0.0259150.0     0.999664
CBAR    1004    1004    1004    1005    0.0259150.0     0.999664
CBAR    1005    1005    1005    1006    0.0259150.0     0.999664
CBAR    1006    1006    1006    1007    -0.050740.0     0.998712
CBAR    1007    1007    1007    1008    -0.050740.0     0.998712
CBAR    1008    1008    1008    1009    -0.050740.0     0.998712
CBAR    1009    1009    1009    1010    -0.050740.0     0.998712
CBAR    2000    2000    2000    2001    0.0     0.0     1.0     
CBAR    2001    2001    2001    2002    0.0     0.0     1.0     
CBAR    2002    2002    2002    2003    0.017389-0.135310.99065 
CBAR    2003    2003    2003    2004    0.017389-0.135310.99065 
CBAR    2004    2004    2004    2005    0.017389-0.135310.99065 
CBAR    2005    2005    2005    2006    0.017389-0.135310.99065 
CBAR    2006    2006    2006    2007    0.017389-0.135310.99065 
CBAR    2007    2007    2007    2008    0.017389-0.135310.99065 
CBAR    2008    2008    2008    2009    0.017389-0.135310.99065 
CBAR    2009    2009    2009    2010    0.017389-0.135310.99065 
$ ... 62 like lines cut

$-------2-------3-------4-------5-------6-------7-------8-------9-------10
$ Aeronode definition
$-------2-------3-------4-------5-------6-------7-------8-------9-------10
GRID    10000   0       0.      0.      -0.08124        0       0       
GRID    10001   0       0.      0.      -0.08124        0       0       
GRID    10002   0       0.      0.      -0.08124        0       0       
GRID    10003   0       0.      0.      -0.08124        0       0       
GRID    10004   0       11.339  3.555   0.910791        0       0       
GRID    10005   0       11.339  0.      4.82079         0       0       
GRID    10006   0       11.339  -3.555  0.910791        0       0       
GRID    10007   0       11.339  0.      -2.99921        0       0       
GRID    10008   0       20.55   3.53031 1.02383         0       0       
GRID    10009   0       20.55   0.      4.73297         0       0       
GRID    10010   0       20.55   -3.530311.02383         0       0       
GRID    10011   0       20.55   0.      -2.68531        0       0       
GRID    10012   0       27.3158 3.51218 1.10687         0       0       
GRID    10013   0       27.3158 0.      4.66847         0       0       
GRID    10014   0       27.3158 -3.512181.10687         0       0       
GRID    10015   0       27.3158 0.      -2.45474        0       0       
GRID    10016   0       34.25   3.51137 0.9271          0       0       
GRID    10017   0       34.25   0.      4.4821          0       0       
GRID    10018   0       34.25   -3.511370.9271          0       0       
GRID    10019   0       34.25   0.      -2.6279         0       0       
$ ... 24 like lines cut
RBE2    1       1000    123456  10000   10001   10002   10003   
RBE2    2       1001    123456  10004   10005   10006   10007   
RBE2    3       1002    123456  10008   10009   10010   10011   
RBE2    4       1003    123456  10012   10013   10014   10015   
RBE2    5       1004    123456  10016   10017   10018   10019   
RBE2    6       1005    123456  10020   10021   10022   10023   
RBE2    7       1006    123456  10024   10025   10026   10027   
RBE2    8       1007    123456  10028   10029   10030   10031   
RBE2    9       1008    123456  10032   10033   10034   10035   
RBE2    10      1009    123456  10036   10037   10038   10039   
RBE2    11      1010    123456  10040   10041   10042   10043   
GRID    20000   0       23.6083 0.      -2.36052        0       0       
GRID    20001   0       27.3158 0.      -3.10134        0       0       
GRID    20002   0       31.0232 0.      -2.36052        0       0       
GRID    20003   0       27.3158 0.      -1.6197         0       0       
GRID    20004   0       23.6093 1.77748 -2.36052        0       0       
GRID    20005   0       27.3158 1.77748 -3.10136        0       0       
GRID    20006   0       31.0222 1.77748 -2.36052        0       0       
GRID    20007   0       27.3158 1.77748 -1.61968        0       0       
GRID    20008   0       24.1859 3.55497 -2.36052        0       0       
GRID    20009   0       27.3158 3.55497 -3.10124        0       0       
GRID    20010   0       30.4456 3.55497 -2.36052        0       0       
GRID    20011   0       27.3158 3.55497 -1.6198         0       0       
GRID    20012   0       25.8516 6.71099 -1.90373        0       0       
GRID    20013   0       28.3256 5.26059 -2.84657        0       0       
GRID    20014   0       30.8237 3.62216 -2.41292        0       0       
GRID    20015   0       28.3497 5.07257 -1.47008        0       0       
GRID    20016   0       27.0382 8.22028 -1.71839        0       0       
GRID    20017   0       29.3483 6.866   -2.59904        0       0       
GRID    20018   0       31.6809 5.33608 -2.19385        0       0       
GRID    20019   0       29.3708 6.69036 -1.31321        0       0       
$ ... 56 like lines cut
RBE2    12      2000    123456  20000   20001   20002   20003   
RBE2    13      2001    123456  20004   20005   20006   20007   
RBE2    14      2002    123456  20008   20009   20010   20011   
RBE2    15      2003    123456  20012   20013   20014   20015   
RBE2    16      2004    123456  20016   20017   20018   20019   
RBE2    17      2005    123456  20020   20021   20022   20023   
RBE2    18      2006    123456  20024   20025   20026   20027   
RBE2    19      2007    123456  20028   20029   20030   20031   
RBE2    20      2008    123456  20032   20033   20034   20035   
RBE2    21      2009    123456  20036   20037   20038   20039   
RBE2    22      2010    123456  20040   20041   20042   20043   
RBE2    23      2011    123456  20044   20045   20046   20047   
RBE2    24      2012    123456  20048   20049   20050   20051   
RBE2    25      2013    123456  20052   20053   20054   20055   
RBE2    26      2014    123456  20056   20057   20058   20059   
RBE2    27      2015    123456  20060   20061   20062   20063   
RBE2    28      2016    123456  20064   20065   20066   20067   
RBE2    29      2017    123456  20068   20069   20070   20071   
RBE2    30      2018    123456  20072   20073   20074   20075   
GRID    20076   0       23.6093 -1.77748-2.36052        0       0       
GRID    20077   0       27.3158 -1.77748-3.10136        0       0       
GRID    20078   0       31.0222 -1.77748-2.36052        0       0       
GRID    20079   0       27.3158 -1.77748-1.61968        0       0       
GRID    20080   0       24.1859 -3.55497-2.36052        0       0       
GRID    20081   0       27.3158 -3.55497-3.10124        0       0       
GRID    20082   0       30.4456 -3.55497-2.36052        0       0       
GRID    20083   0       27.3158 -3.55497-1.6198         0       0       
GRID    20084   0       25.8516 -6.71099-1.90373        0       0       
GRID    20085   0       28.3256 -5.26059-2.84657        0       0       
GRID    20086   0       30.8237 -3.62216-2.41292        0       0       
GRID    20087   0       28.3497 -5.07257-1.47008        0       0       
GRID    20088   0       27.0382 -8.22028-1.71839        0       0       
GRID    20089   0       29.3483 -6.866  -2.59904        0       0       
GRID    20090   0       31.6809 -5.33608-2.19385        0       0       
GRID    20091   0       29.3708 -6.69036-1.31321        0       0       
GRID    20092   0       28.2242 -9.72996-1.533          0       0       
GRID    20093   0       30.371  -8.47141-2.35144        0       0       
GRID    20094   0       32.5387 -7.04962-1.97485        0       0       
GRID    20095   0       30.3919 -8.30817-1.15641        0       0       
$ ... 52 like lines cut
RBE2    31      2019    123456  20076   20077   20078   20079   
RBE2    32      2020    123456  20080   20081   20082   20083   
RBE2    33      2021    123456  20084   20085   20086   20087   
RBE2    34      2022    123456  20088   20089   20090   20091   
RBE2    35      2023    123456  20092   20093   20094   20095   
RBE2    36      2024    123456  20096   20097   20098   20099   
RBE2    37      2025    123456  20100   20101   20102   20103   
RBE2    38      2026    123456  20104   20105   20106   20107   
RBE2    39      2027    123456  20108   20109   20110   20111   
RBE2    40      2028    123456  20112   20113   20114   20115   
RBE2    41      2029    123456  20116   20117   20118   20119   
RBE2    42      2030    123456  20120   20121   20122   20123   
RBE2    43      2031    123456  20124   20125   20126   20127   
RBE2    44      2032    123456  20128   20129   20130   20131   
RBE2    45      2033    123456  20132   20133   20134   20135   
RBE2    46      2034    123456  20136   20137   20138   20139   
RBE2    47      2035    123456  20140   20141   20142   20143   
RBE2    48      2036    123456  20144   20145   20146   20147   
GRID    30000   0       57.2378 0.      2.844           0       0       
GRID    30001   0       59.6344 -0.711512.844           0       0       
GRID    30002   0       62.031  0.      2.844           0       0       
GRID    30003   0       59.6344 0.7115172.844           0       0       
GRID    30004   0       58.9285 0.      5.37658         0       0       
GRID    30005   0       60.572  0.6639173.86            0       0       
GRID    30006   0       62.2154 0.      2.34342         0       0       
GRID    30007   0       60.572  -0.663913.86            0       0       
GRID    30008   0       59.9839 0.      6.28384         0       0       
GRID    30009   0       61.5095 0.6163164.876           0       0       
GRID    30010   0       63.0352 0.      3.46816         0       0       
GRID    30011   0       61.5095 -0.616314.876           0       0       
GRID    30012   0       61.0392 0.      7.19111         0       0       
GRID    30013   0       62.4471 0.5687155.892           0       0       
GRID    30014   0       63.8549 0.      4.59289         0       0       
GRID    30015   0       62.4471 -0.568715.892           0       0       
GRID    30016   0       62.0946 0.      8.09838         0       0       
GRID    30017   0       63.3846 0.5211156.908           0       0       
GRID    30018   0       64.6746 0.      5.71762         0       0       
GRID    30019   0       63.3846 -0.521116.908           0       0       
$ ... 24 like lines cut
RBE2    49      3000    123456  30000   30001   30002   30003   
RBE2    50      3001    123456  30004   30005   30006   30007   
RBE2    51      3002    123456  30008   30009   30010   30011   
RBE2    52      3003    123456  30012   30013   30014   30015   
RBE2    53      3004    123456  30016   30017   30018   30019   
RBE2    54      3005    123456  30020   30021   30022   30023   
RBE2    55      3006    123456  30024   30025   30026   30027   
RBE2    56      3007    123456  30028   30029   30030   30031   
RBE2    57      3008    123456  30032   30033   30034   30035   
RBE2    58      3009    123456  30036   30037   30038   30039   
RBE2    59      3010    123456  30040   30041   30042   30043   
GRID    40000   0       60.2236 0.      1.0665          0       0       
GRID    40001   0       62.3302 0.      0.560928        0       0       
GRID    40002   0       64.4367 0.      1.0665          0       0       
GRID    40003   0       62.3302 0.      1.57207         0       0       
GRID    40004   0       60.2227 1.01358 1.0665          0       0       
GRID    40005   0       62.3302 1.01358 0.560963        0       0       
GRID    40006   0       64.4376 1.01358 1.0665          0       0       
GRID    40007   0       62.3302 1.01358 1.57204         0       0       
GRID    40008   0       60.5249 2.02717 1.0665          0       0       
GRID    40009   0       62.3302 2.02717 0.560787        0       0       
GRID    40010   0       64.1355 2.02717 1.0665          0       0       
GRID    40011   0       62.3302 2.02717 1.57221         0       0       
GRID    40012   0       61.4048 3.76011 1.17364         0       0       
GRID    40013   0       62.8745 2.9311  0.70199         0       0       
GRID    40014   0       64.2949 2.01779 1.16874         0       0       
GRID    40015   0       62.8253 2.84679 1.64039         0       0       
GRID    40016   0       62.03   4.55834 1.27815         0       0       
GRID    40017   0       63.3925 3.78991 0.839738        0       0       
GRID    40018   0       64.7092 2.94312 1.2736          0       0       
GRID    40019   0       63.3467 3.71155 1.71202         0       0       
$ ... 36 like lines cut
RBE2    60      4000    123456  40000   40001   40002   40003   
RBE2    61      4001    123456  40004   40005   40006   40007   
RBE2    62      4002    123456  40008   40009   40010   40011   
RBE2    63      4003    123456  40012   40013   40014   40015   
RBE2    64      4004    123456  40016   40017   40018   40019   
RBE2    65      4005    123456  40020   40021   40022   40023   
RBE2    66      4006    123456  40024   40025   40026   40027   
RBE2    67      4007    123456  40028   40029   40030   40031   
RBE2    68      4008    123456  40032   40033   40034   40035   
RBE2    69      4009    123456  40036   40037   40038   40039   
RBE2    70      4010    123456  40040   40041   40042   40043   
RBE2    71      4011    123456  40044   40045   40046   40047   
RBE2    72      4012    123456  40048   40049   40050   40051   
RBE2    73      4013    123456  40052   40053   40054   40055   
GRID    40056   0       60.2227 -1.013581.0665          0       0       
GRID    40057   0       62.3302 -1.013580.560963        0       0       
GRID    40058   0       64.4376 -1.013581.0665          0       0       
GRID    40059   0       62.3302 -1.013581.57204         0       0       
GRID    40060   0       60.5249 -2.027171.0665          0       0       
GRID    40061   0       62.3302 -2.027170.560787        0       0       
GRID    40062   0       64.1355 -2.027171.0665          0       0       
GRID    40063   0       62.3302 -2.027171.57221         0       0       
GRID    40064   0       61.4048 -3.760111.17364         0       0       
GRID    40065   0       62.8745 -2.9311 0.70199         0       0       
GRID    40066   0       64.2949 -2.017791.16874         0       0       
GRID    40067   0       62.8253 -2.846791.64039         0       0       
GRID    40068   0       62.03   -4.558341.27815         0       0       
GRID    40069   0       63.3925 -3.789910.839738        0       0       
GRID    40070   0       64.7092 -2.943121.2736          0       0       
GRID    40071   0       63.3467 -3.711551.71202         0       0       
GRID    40072   0       62.6525 -5.358141.38267         0       0       
GRID    40073   0       63.9104 -4.648680.977918        0       0       
GRID    40074   0       65.1261 -3.866881.37847         0       0       
GRID    40075   0       63.8682 -4.576341.78321         0       0       
$ ... 32 like lines cut
RBE2    74      4014    123456  40056   40057   40058   40059   
RBE2    75      4015    123456  40060   40061   40062   40063   
RBE2    76      4016    123456  40064   40065   40066   40067   
RBE2    77      4017    123456  40068   40069   40070   40071   
RBE2    78      4018    123456  40072   40073   40074   40075   
RBE2    79      4019    123456  40076   40077   40078   40079   
RBE2    80      4020    123456  40080   40081   40082   40083   
RBE2    81      4021    123456  40084   40085   40086   40087   
RBE2    82      4022    123456  40088   40089   40090   40091   
RBE2    83      4023    123456  40092   40093   40094   40095   
RBE2    84      4024    123456  40096   40097   40098   40099   
RBE2    85      4025    123456  40100   40101   40102   40103   
RBE2    86      4026    123456  40104   40105   40106   40107   

$-------2-------3-------4-------5-------6-------7-------8-------9-------10
$ Beam properties
$-------2-------3-------4-------5-------6-------7-------8-------9-------10
PBAR    1000    1       0.0555810.1782920.1782920.356585439.244 
        2.43605 0.      0.      2.21487 -2.43605-0.     -0.     -2.21487
        0.      0.      0.      
PBAR    1001    1       0.0852620.5773710.5773711.15474 1068.73 
        3.80957 0.      0.      3.54266 -3.80957-0.     -0.     -3.54266
        0.      0.      0.      
PBAR    1002    1       0.0956820.5436770.5436771.08735 1315.59 
        3.63537 0.      0.      3.52125 -3.63537-0.     -0.     -3.52125
        0.      0.      0.      
PBAR    1003    1       0.1340880.8359330.8359331.67187 1295.86 
        3.555   0.      0.      3.51137 -3.555  -0.     -0.     -3.51137
        0.      0.      0.      
PBAR    1004    1       0.1074190.6748140.6748141.34963 1298.05 
        3.555   0.      0.      3.51137 -3.555  -0.     -0.     -3.51137
        0.      0.      0.      
PBAR    1005    1       0.0903490.5665320.5665321.13306 1347.1  
        3.555   0.      0.      3.51137 -3.555  -0.     -0.     -3.51137
        0.      0.      0.      
PBAR    1006    1       0.0767010.3982490.3982490.796498986.201 
        3.22193 0.      0.      3.18238 -3.22193-0.     -0.     -3.18238
        0.      0.      0.      
PBAR    1007    1       0.0597660.1703920.1703920.3407831346.06 
        2.56443 0.      0.      2.53296 -2.56443-0.     -0.     -2.53296
        0.      0.      0.      
PBAR    1008    1       0.0467570.0790440.0790440.158088831.114 
        2.03404 0.      0.      2.00908 -2.03404-0.     -0.     -2.00908
        0.      0.      0.      
PBAR    1009    1       0.0261110.0223340.0223340.044669196.347 
        1.16305 0.      0.      1.14878 -1.16305-0.     -0.     -1.14878
        0.      0.      0.      
PBAR    2000    200     0.4435130.2292432.38674 0.5749362.98518 
        0.      3.877   0.7355340.      -0.     -3.877  -0.73553-0.     
        0.      0.      0.      
PBAR    2001    200     0.4435130.2138541.95109 0.5184472.98518 
        0.      3.39204 0.7461160.      -0.     -3.39204-0.74611-0.     
        0.      0.      0.      
PBAR    2002    200     0.3833630.1860091.41235 0.4288322.72382 
        0.      3.03179 0.7179030.      -0.     -3.03179-0.7179 -0.     
        0.      0.      0.      
PBAR    2003    200     0.3620090.1544671.16121 0.35046 2.53195 
        0.      2.83937 0.6719530.      -0.     -2.83937-0.67195-0.     
        0.      0.      0.      
PBAR    2004    200     0.3379970.1262250.9416780.2828572.34477 
        0.      2.64604 0.6260810.      -0.     -2.64604-0.62608-0.     
        0.      0.      0.      
PBAR    2005    200     0.3144890.1016710.7524340.2225492.15791 
        0.      2.45235 0.5802410.      -0.     -2.45235-0.58024-0.     
        0.      0.      0.      
PBAR    2006    200     0.2898580.08041 0.5927410.1760071.97093 
        0.      2.25851 0.5344160.      -0.     -2.25851-0.53441-0.     
        0.      0.      0.      
PBAR    2007    200     0.2643130.0619  0.4530360.1335241.78188 
        0.      2.06384 0.4886960.      -0.     -2.06384-0.48869-0.     
        0.      0.      0.      
PBAR    2008    200     0.2329170.0460910.3323210.0993711.53487 
        0.      1.85302 0.4423820.      -0.     -1.85302-0.44238-0.     
        0.      0.      0.      
PBAR    2009    200     0.1971290.0350520.22769 0.0737421.4417  
        0.      1.65275 0.4178580.      -0.     -1.65275-0.41785-0.     
        0.      0.      0.      
$ ... 93 like lines cut

$-------2-------3-------4-------5-------6-------7-------8-------9-------10
$ Bodies and lifting surfaces definition
$-------2-------3-------4-------5-------6-------7-------8-------9-------10
CORD2R  1       0       0       0       0       0.5552910       20.9734 
        20.9734 0       -0.55529
PAERO1  10000
CAERO1  200     10000   0       3       7                              1
        19.9013 0.      -2.2963 14.8298 19.9013 3.55497 -2.2963 14.8298 
CAERO1  221     10000   0       3       7                              1
        19.9013 -0.     -2.2963 14.8298 19.9013 -3.55497-2.2963 14.8298 
CAERO1  242     10000   0       6       4                              1
        19.9013 3.54875 -2.2963 11.8638 28.9884 13.2935 -1.0998 7.13433 
CAERO1  10242   10000   0       6       3                              1
        31.7651 3.54875 -2.2963 2.96596 36.1228 13.2935 -1.0998 1.78358 
AELIST  10242   10242       THRU10259   
CORD2R  2              031.7651 3.54875 -2.2963 31.7651 3.67062 -3.28885
        30.8511 3.95141 -2.24686
AESURF  1         flap1r2       10242   
CAERO1  266     10000   0       6       4                              1
        19.9013 -3.54875-2.2963 11.8638 28.9884 -13.2935-1.0998 7.13433 
CAERO1  10266   10000   0       6       3                              1
        31.7651 -3.54875-2.2963 2.96596 36.1228 -13.2935-1.0998 1.78358 
AELIST  10266   10266       THRU10283   
CORD2R  3              031.7651 -3.54875-2.2963 31.7651 -3.42688-1.30375
        30.8511 -3.95141-2.24686
AESURF  2         flap1l3       10266   
CAERO1  290     10000   0       5       4                              1
        28.9885 13.221  -1.108717.13431 36.6078 21.3917 -0.105474.71374 
CAERO1  10290   10000   0       5       3                              1
        36.1228 13.221  -1.108711.78358 41.3215 21.3917 -0.105471.57125 
AELIST  10290   10290       THRU10304   
CORD2R  4              036.1228 13.221  -1.1087136.1228 13.3429 -2.10126
        35.2773 13.751  -1.04364
AESURF  3         flap2r4       10290   
CAERO1  310     10000   0       5       4                              1
        28.9885 -13.221 -1.108717.13431 36.6078 -21.3917-0.105474.71374 
CAERO1  10310   10000   0       5       3                              1
        36.1228 -13.221 -1.108711.78358 41.3215 -21.3917-0.105471.57125 
AELIST  10310   10310       THRU10324   
CORD2R  5              036.1228 -13.221 -1.1087136.1228 -13.0991-0.11616
        35.2773 -13.751 -1.04364
AESURF  4         flap2l5       10310   
CAERO1  330     10000   0       5       4                              1
        36.6077 21.3308 -0.112954.71374 44.3938 29.6804 0.9122522.67537 
CAERO1  10330   10000   0       5       3                              1
        41.3214 21.3308 -0.112951.57125 47.0692 29.6804 0.9122520.89179 
AELIST  10330   10330       THRU10344   
CORD2R  6              041.3214 21.3308 -0.1129541.3214 21.4527 -1.1055 
        40.4958 21.8907 -0.04419
AESURF  5       aileronr6       10330   
CAERO1  350     10000   0       5       4                              1
        36.6077 -21.3308-0.112954.71374 44.3938 -29.68040.9122522.67537 
CAERO1  10350   10000   0       5       3                              1
        41.3214 -21.3308-0.112951.57125 47.0692 -29.68040.9122520.89179 
AELIST  10350   10350       THRU10364   
CORD2R  7              041.3214 -21.3308-0.1129541.3214 -21.20890.879596
        40.4958 -21.8907-0.04419
AESURF  6       aileronl7       10350   
CAERO1  370     10000   0       2       6                              1
        58.9611 0.      1.00088 8.42621 58.9611 2.02717 1.00088 8.42621 
CAERO1  382     10000   0       2       6                              1
        58.9611 -0.     1.00088 8.42621 58.9611 -2.027171.00088 8.42621 
CAERO1  394     10000   0       3       3                              1
        58.9611 2.03399 1.00088 5.89835 61.98   5.50682 1.44145 4.25259 
CAERO1  10394   10000   0       3       3                              1
        64.8594 2.03399 1.00088 2.52786 66.2326 5.50682 1.44145 1.82254 
AELIST  10394   10394       THRU10402   
CORD2R  8              064.8594 2.03399 1.00088 64.8594 2.15984 0.008831
        63.9285 2.39625 1.04684 
AESURF  7         elev1r8       10394   
CAERO1  403     10000   0       3       3                              1
        58.9611 -2.033991.00088 5.89835 61.98   -5.506821.44145 4.25259 
CAERO1  10403   10000   0       3       3                              1
        64.8594 -2.033991.00088 2.52786 66.2326 -5.506821.44145 1.82254 
AELIST  10403   10403       THRU10411   
CORD2R  9              064.8594 -2.033991.00088 64.8594 -1.908141.99293 
        63.9285 -2.396251.04684 
AESURF  8         elev1l9       10403   
CAERO1  412     10000   0       6       3                              1
        61.98   5.47918 1.43794 4.25258 66.7611 10.9792 2.13568 1.81764 
CAERO1  10412   10000   0       6       3                              1
        66.2326 5.47918 1.43794 1.82254 68.5787 10.9792 2.13568 0.778987
AELIST  10412   10412       THRU10429   
CORD2R  10             066.2326 5.47918 1.43794 66.2326 5.60503 0.445891
        65.3116 5.8658  1.48699 
AESURF  9         elev2r10      10412   
CAERO1  430     10000   0       6       3                              1
        61.98   -5.479181.43794 4.25258 66.7611 -10.97922.13568 1.81764 
CAERO1  10430   10000   0       6       3                              1
        66.2326 -5.479181.43794 1.82254 68.5787 -10.97922.13568 0.778987
AELIST  10430   10430       THRU10447   
CORD2R  11             066.2326 -5.479181.43794 66.2326 -5.353332.42999 
        65.3116 -5.8658 1.48699 
AESURF  10        elev2l11      10430   
CAERO1  448     10000   0       4       3                              1
        54.5945 0.      2.844   8.30102 61.0966 0.      7.924   5.31265 
CAERO1  10448   10000   0       4       3                              1
        62.8955 0.      2.844   3.55758 66.4092 0.      7.924   2.27685 
AELIST  10448   10448       THRU10459   
CORD2R  12             062.8955 0.      2.844   62.8955 1.      2.844   
        62.0731 0.      3.41286 
AESURF  11       rudder112      10448   
CAERO1  460     10000   0       4       3                              1
        61.0966 3.16e-167.924   5.31266 67.5987 3.16e-1613.004  2.32429 
CAERO1  10460   10000   0       4       3                              1
        66.4093 3.16e-167.924   2.27686 69.923  3.16e-1613.004  0.996125
AELIST  10460   10460       THRU10471   
CORD2R  13             066.4093 3.16e-167.924   66.4093 1.      7.924   
        65.5868 3.16e-168.49286 
AESURF  12       rudder213      10460   

$-------2-------3-------4-------5-------6-------7-------8-------9-------10
$ Links aeroelastic variables
$-------2-------3-------4-------5-------6-------7-------8-------9-------10
AELINK  1         flap1l  flap1r1.      
AELINK  1         flap2l  flap2r1.      
AELINK  1       aileronlaileronr-1.     
AELINK  1        rudder2 rudder1-1.     
AELINK  1         elev2r  elev1r-1.     
AELINK  1         elev1l  elev1r1.      
AELINK  1         elev2l  elev1r1.      

$-------2-------3-------4-------5-------6-------7-------8-------9-------10
$ Structural interpolation set
$-------2-------3-------4-------5-------6-------7-------8-------9-------10
SET1    1       1000    1001    1002    1003    1004    1005    1006    
        1007    1008    1009    1010    
SET1    200     2000    2001    2002    
CORD2R  200     0       27.3158 0       -2.3605227.3158 0       -1.36052
        26.3158 0       -2.36052
SET1    201     2002    2003    2004    2005    2006    2007    2008    
        
CORD2R  201     0       27.3158 3.55497 -2.3605227.3158 3.43048 -1.3683 
        26.4694 4.08335 -2.29423
SET1    202     2008    2009    2010    2011    2012    2013    
CORD2R  202     0       33.4471 13.2246 -1.1473333.4471 13.1013 -0.15495
        32.6553 13.8307 -1.07205
SET1    203     2013    2014    2015    2016    2017    2018    
CORD2R  203     0       39.75   21.3333 -0.1401739.75   21.21   0.852198
        38.9576 21.9386 -0.06498
SET1    250     2000    2019    2020    
CORD2R  250     0       27.3158 -0      -2.3605227.3158 0       -3.36052
        26.3158 0       -2.36052
SET1    251     2020    2021    2022    2023    2024    2025    2026    
        
CORD2R  251     0       27.3158 -3.55497-2.3605227.3158 -3.67946-3.35274
        26.4694 -4.08335-2.29423
SET1    252     2026    2027    2028    2029    2030    2031    
CORD2R  252     0       33.4471 -13.2246-1.1473333.4471 -13.3479-2.13971
        32.6553 -13.8307-1.07205
SET1    253     2031    2032    2033    2034    2035    2036    
CORD2R  253     0       39.75   -21.3333-0.1401739.75   -21.4566-1.13255
        38.9576 -21.9386-0.06498
SET1    301     3000    3001    3002    3003    3004    3005    
CORD2R  301     0       59.6344 0       2.844   59.6344 -1      2.844   
        58.8995 0       3.52216 
SET1    302     3005    3006    3007    3008    3009    3010    
CORD2R  302     0       64.3221 0       7.924   64.3221 -1      7.924   
        63.5872 0       8.60216 
SET1    400     4000    4001    
CORD2R  400     0       62.3302 0       1.0665  62.3302 0       2.0665  
        61.3302 0       1.0665  
SET1    401     4001    4002    4003    4004    4005    4006    
CORD2R  401     0       62.3302 1.01358 1.0665  62.3302 0.9201182.06212 
        61.4231 1.43264 1.10584 
SET1    402     4006    4007    4008    4009    4010    4011    4012    
        4013    
CORD2R  402     0       64.409  5.47429 1.48526 64.409  5.35335 2.47792 
        63.5578 5.99521 1.54872 
SET1    450     4000    4014    
CORD2R  450     0       62.3302 -0      1.0665  62.3302 0       0.0665  
        61.3302 0       1.0665  
SET1    451     4014    4015    4016    4017    4018    4019    
CORD2R  451     0       62.3302 -1.013581.0665  62.3302 -1.107050.070877
        61.4231 -1.432641.10584 
SET1    452     4019    4020    4021    4022    4023    4024    4025    
        4026    
CORD2R  452     0       64.409  -5.474291.48526 64.409  -5.595230.492595
        63.5578 -5.995211.54872 

$-------2-------3-------4-------5-------6-------7-------8-------9-------10
$ Interpolation definition
$-------2-------3-------4-------5-------6-------7-------8-------9-------10
SPLINE2 20200   200     200     220     200                     200     
SPLINE2 20201   242     242     265     201                     201     
SPLINE2 30242   10242   10242   10259   201                     201     
SPLINE2 20202   290     290     309     202                     202     
SPLINE2 30290   10290   10290   10304   202                     202     
SPLINE2 20203   330     330     349     203                     203     
SPLINE2 30330   10330   10330   10344   203                     203     
SPLINE2 20250   221     221     241     250                     250     
SPLINE2 20251   266     266     289     251                     251     
SPLINE2 30266   10266   10266   10283   251                     251     
SPLINE2 20252   310     310     329     252                     252     
SPLINE2 30310   10310   10310   10324   252                     252     
SPLINE2 20253   350     350     369     253                     253     
SPLINE2 30350   10350   10350   10364   253                     253     
SPLINE2 20301   448     448     459     301                     301     
SPLINE2 30448   10448   10448   10459   301                     301     
SPLINE2 20302   460     460     471     302                     302     
SPLINE2 30460   10460   10460   10471   302                     302     
SPLINE2 20400   370     370     381     400                     400     
SPLINE2 20401   394     394     402     401                     401     
$ ... 8 like lines cut

$-------2-------3-------4-------5-------6-------7-------8-------9-------10
$ Rigid structural link
$-------2-------3-------4-------5-------6-------7-------8-------9-------10
RBE2    87      1003    1235    2002    2020    
RBE2    88      1008    123456  3000    
RBE2    89      1009    123456  4000    


$-------2-------3-------4-------5-------6-------7-------8-------9-------10
$ Lumped masses: FUSELAGE 13370.5816 Kg
$-------2-------3-------4-------5-------6-------7-------8-------9-------10
CONM2   1       1000    0       681.595 0.      0.      0.      
        1888.99 0.      7358.79 -478.5460.      7316.92 
CONM2   2       1001    0       1936.49 0.      0.      0.      
        10379.4 0.      16232.5 -483.25 0.      16190.6 
CONM2   3       1002    0       2132.22 0.      0.      0.      
        14108.3 0.      12220.9 23.163  0.      12221.2 
CONM2   4       1003    0       1756.36 0.      0.      0.      
        11103.4 0.      6871.79 -22.96960.      6873.45 
CONM2   5       1004    0       1747.52 0.      0.      0.      
        10905.2 0.      6922.88 -103.2410.      6925.55 
CONM2   6       1005    0       1815.15 0.      0.      0.      
        11327.7 0.      7829.23 -90.69540.      7831.58 
CONM2   7       1006    0       1596.12 0.      0.      0.      
        9234.65 0.      6522.17 24.4811 0.      6526.36 
CONM2   8       1007    0       970.19  0.      0.      0.      
        4367.33 0.      2717.47 83.8275 0.      2721.73 
CONM2   9       1008    0       432.248 0.      0.      0.      
        1268.15 0.      693.99  29.1724 0.      695.472 
CONM2   10      1009    0       207.104 0.      0.      0.      
        291.942 0.      371.722 -4.053550.      371.516 
CONM2   11      1010    0       95.5897 0.      0.      0.      
        64.4814 0.      304.015 -12.17040.      303.397 

$-------2-------3-------4-------5-------6-------7-------8-------9-------10
$ Lumped masses: WING 25675.9603 Kg
$-------2-------3-------4-------5-------6-------7-------8-------9-------10
CONM2   12      2000    0       48.2437 -5.645720.      0.      
        0.      0.      0.      0.      0.      0.      
CONM2   13      2000    0       144.731 5.64616 0.      0.      
        0.      0.      0.      0.      0.      0.      
CONM2   14      2001    0       96.4873 -5.403240.      0.      
        0.      0.      0.      0.      0.      0.      
CONM2   15      2001    0       289.462 4.82427 0.      0.      
        0.      0.      0.      0.      0.      0.      
CONM2   16      2002    0       279.973 -4.313382.67963 0.441735
        0.      0.      0.      0.      0.      0.      
CONM2   17      2002    0       839.92  3.38645 -2.10378-0.3468 
        0.      0.      0.      0.      0.      0.      
CONM2   18      2003    0       441.859 -4.023692.49966 0.412068
        0.      0.      0.      0.      0.      0.      
CONM2   19      2003    0       1325.58 3.18542 -1.9789 -0.32622
        0.      0.      0.      0.      0.      0.      
CONM2   20      2004    0       391.039 -3.733612.31945 0.382361
        0.      0.      0.      0.      0.      0.      
CONM2   21      2004    0       1173.12 2.984   -1.85377-0.30559
        0.      0.      0.      0.      0.      0.      
CONM2   22      2005    0       334.182 -3.443382.13915 0.352639
        0.      0.      0.      0.      0.      0.      
CONM2   23      2005    0       1002.55 2.78244 -1.72855-0.28495
        0.      0.      0.      0.      0.      0.      
CONM2   24      2006    0       281.119 -3.153091.95881 0.32291 
        0.      0.      0.      0.      0.      0.      
CONM2   25      2006    0       843.357 2.58081 -1.60329-0.2643 
        0.      0.      0.      0.      0.      0.      
CONM2   26      2007    0       232.048 -2.862451.77826 0.293145
        0.      0.      0.      0.      0.      0.      
CONM2   27      2007    0       696.143 2.37883 -1.47782-0.24361
        0.      0.      0.      0.      0.      0.      
CONM2   28      2008    0       195.202 -2.4448 1.8634  0.297444
        0.      0.      0.      0.      0.      0.      
CONM2   29      2008    0       585.607 1.95464 -1.48981-0.2378 
        0.      0.      0.      0.      0.      0.      
CONM2   30      2009    0       169.713 -2.261421.72363 0.275133
        0.      0.      0.      0.      0.      0.      
CONM2   31      2009    0       509.14  1.66121 -1.26616-0.20211
        0.      0.      0.      0.      0.      0.      
$ ... 112 like lines cut

$-------2-------3-------4-------5-------6-------7-------8-------9-------10
$ Lumped masses: VTAIL 1280.1794 Kg
$-------2-------3-------4-------5-------6-------7-------8-------9-------10
CONM2   88      3000    0       131.493 0.      0.      0.      
        129.014 0.      20.943  117.114 0.      147.857 
CONM2   89      3001    0       244.078 0.      0.      0.      
        226.008 0.      38.8745 202.793 0.      258.637 
CONM2   90      3002    0       207.727 0.      0.      0.      
        168.396 0.      33.0849 146.634 0.      191.989 
CONM2   91      3003    0       174.311 0.      0.      0.      
        122.704 0.      27.7627 102.886 0.      139.258 
CONM2   92      3004    0       143.829 0.      0.      0.      
        87.1306 0.      22.9078 69.5969 0.      98.3285 
CONM2   93      3005    0       116.282 0.      0.      0.      
        60.0284 0.      18.5203 44.9815 0.      67.2658 
CONM2   94      3006    0       91.6678 0.      0.      0.      
        39.8997 0.      14.6    27.4168 0.      44.311  
CONM2   95      3007    0       69.9881 0.      0.      0.      
        25.3979 0.      11.1471 15.4433 0.      27.8827 
CONM2   96      3008    0       51.2425 0.      0.      0.      
        15.3274 0.      8.16144 7.76556 0.      16.5768 
CONM2   97      3009    0       35.431  0.      0.      0.      
        8.64356 0.      5.64312 3.25151 0.      9.16671 
CONM2   98      3010    0       14.1294 0.      0.      0.      
        3.0136  0.      2.2504  0.8270660.      3.14667 

$-------2-------3-------4-------5-------6-------7-------8-------9-------10
$ Lumped masses: HTAIL 1222.7255 Kg
$-------2-------3-------4-------5-------6-------7-------8-------9-------10
CONM2   99      4000    0       17.4607 0.      0.      0.      
        1.49486 0.      1.49486 0.      0.      29.3928 
CONM2   100     4001    0       34.9214 0.      0.      0.      
        2.98971 0.      53.0039 0.      0.      2.98971 
CONM2   101     4002    0       66.0034 0.      0.      0.      
        18.4721 21.2846 63.0462 2.58564 4.28748 6.1569  
CONM2   102     4003    0       92.0358 0.      0.      0.      
        30.5907 37.7056 70.3746 4.58046 7.59527 8.7743  
CONM2   103     4004    0       80.3138 0.      0.      0.      
        23.8322 28.1569 53.5411 3.42049 5.67182 7.54062 
CONM2   104     4005    0       67.4705 0.      0.      0.      
        17.7145 19.8295 38.6369 2.40888 3.99437 6.24118 
CONM2   105     4006    0       58.0997 0.      0.      0.      
        13.278  14.2668 27.9242 1.73532 2.8414  4.90881 
CONM2   106     4007    0       50.1688 0.      0.      0.      
        9.97955 10.3351 20.2029 1.25917 2.02754 3.80813 
CONM2   107     4008    0       41.4593 0.      0.      0.      
        7.24646 6.92971 14.1013 0.8442741.35947 3.10851 
CONM2   108     4009    0       33.8173 0.      0.      0.      
        5.19733 4.50363 9.65228 0.5486950.88352 2.50807 
CONM2   109     4010    0       26.8956 0.      0.      0.      
        3.61722 2.75043 6.33792 0.3350960.5395781.97485 
CONM2   110     4011    0       20.7761 0.      0.      0.      
        2.43769 1.55056 3.97149 0.1889110.3041881.5118  
CONM2   111     4012    0       15.4489 0.      0.      0.      
        1.57887 0.77656 2.34703 0.0946110.1523451.11516 
CONM2   112     4013    0       6.49151 0.      0.      0.      
        0.610223-0.014850.4622610.241955-0.024050.852527
CONM2   113     4000    0       17.4607 0.      0.      0.      
        1.49486 -0.     1.49486 0.      -0.     29.3928 
CONM2   114     4014    0       34.9214 0.      0.      0.      
        2.98971 -0.     53.0039 0.      -0.     2.98971 
CONM2   115     4015    0       66.0034 0.      0.      0.      
        18.4721 -21.284663.0462 2.58564 -4.287486.1569  
CONM2   116     4016    0       92.0358 0.      0.      0.      
        30.5907 -37.705670.3746 4.58046 -7.595278.7743  
CONM2   117     4017    0       80.3138 0.      0.      0.      
        23.8322 -28.156953.5411 3.42049 -5.671827.54062 
CONM2   118     4018    0       67.4705 0.      0.      0.      
        17.7145 -19.829538.6369 2.40888 -3.994376.24118 
$ ... 16 like lines cut

$-------2-------3-------4-------5-------6-------7-------8-------9-------10
$ Lumped masses: ENGINES 13313.6409 Kg
$-------2-------3-------4-------5-------6-------7-------8-------9-------10
CONM2   127     2006    0       6656.82 -4.204082.16517 -1.27993
        0.      0.      0.      0.      0.      0.      
CONM2   128     2024    0       6656.82 -4.20408-2.16517-1.27993
        0.      0.      0.      0.      0.      0.      

$-------2-------3-------4-------5-------6-------7-------8-------9-------10
$ Lumped masses: ENGINES2 13313.6409 Kg
$-------2-------3-------4-------5-------6-------7-------8-------9-------10
CONM2   129     2012    0       6656.82 -2.485811.75882 -2.05352
        0.      0.      0.      0.      0.      0.      
CONM2   130     2030    0       6656.82 -2.48581-1.75882-2.05352
        0.      0.      0.      0.      0.      0.      

$-------2-------3-------4-------5-------6-------7-------8-------9-------10
$ Lumped masses: MAIN LANDING GEAR 15269.8617 Kg
$-------2-------3-------4-------5-------6-------7-------8-------9-------10
CONM2   131     1003    0       15269.9 -0.454020.      -2.81496
        0.      0.      0.      0.      0.      0.      
$ Summary of secondary structural masses (as CONM2): 
$ Fuselage: 13370.5816
$ Wing: 25675.9603
$ Canard: 0
$ Htail: 1222.7255
$ Vtail: 1280.1794
$ Summary of secondary masses (as CONM2): 
$ Engines: 13313.6409
$ Engines2: 13313.6409
$ Nose landing gear: 0
$ Main landing gear: 15269.8617